/*--------------------------------*- C++ -*----------------------------------*\
| =========                 |                                                 |
| \\      /  F ield         | OpenFOAM: The Open Source CFD Toolbox           |
|  \\    /   O peration     | Version:  v2012                                 |
|   \\  /    A nd           | Website:  www.openfoam.com                      |
|    \\/     M anipulation  |                                                 |
\*---------------------------------------------------------------------------*/
FoamFile
{
    version     2.0;
    format      ascii;
    class       polyBoundaryMesh;
    location    "constant/polyMesh";
    object      boundary;
}
// * * * * * * * * * * * * * * * * * * * * * * * * * * * * * * * * * * * * * //

6
(
    west
    {
        type            patch;
        nFaces          4;
        startFace       12;
    }
    east
    {
        type            patch;
        nFaces          4;
        startFace       16;
    }
    terrain
    {
        type            wall;
        inGroups        1(wall);
        nFaces          4;
        startFace       20;
    }
    top
    {
        type            patch;
        nFaces          4;
        startFace       24;
    }
    south
    {
        type            patch;
        nFaces          4;
        startFace       28;
    }
    north
    {
        type            patch;
        nFaces          4;
        startFace       32;
    }
)

// ************************************************************************* //
