/*---------------------------------------------------------------------------*
Caelus 7.04
\*---------------------------------------------------------------------------*/
FoamFile
{
    version     2.0;
    format      ascii;
    class       dictionary;
    location    "constant";
    object      RASProperties;
}
// * * * * * * * * * * * * * * * * * * * * * * * * * * * * * * * * * * * * * //

RASModel        realizableKE;

turbulence      on;

printCoeffs     on;


// ************************************************************************* //
